tests/fuzzer/corpus_json/21_random_005.json
{
  "version": "1.0",
  "type": "input",
  "is_batch": false,
  "attributes": {},
  "data": {
    "node": [
      {
        "id": 0,
        "u_rated": 10000.0
      },
      {
        "id": 1,
        "u_rated": 10000.0
      },
      {
        "id": 2,
        "u_rated": 10000.0
      },
      {
        "id": 3,
        "u_rated": 10000.0
      },
      {
        "id": 4,
        "u_rated": 10000.0
      },
      {
        "id": 5,
        "u_rated": 10000.0
      },
      {
        "id": 6,
        "u_rated": 10000.0
      },
      {
        "id": 7,
        "u_rated": 10000.0
      },
      {
        "id": 8,
        "u_rated": 10000.0
      },
      {
        "id": 9,
        "u_rated": 10000.0
      },
      {
        "id": 10,
        "u_rated": 10000.0
      }
    ],
    "source": [
      {
        "id": 11,
        "node": 0,
        "status": 1,
        "u_ref": 1.0590387131131394,
        "u_ref_angle": 0.0,
        "sk": 741812810.5618033,
        "rx_ratio": 0.47122514188852516,
        "z01_ratio": 1.0
      }
    ],
    "line": [
      {
        "id": 12,
        "from_node": 0,
        "to_node": 1,
        "from_status": 1,
        "to_status": 1,
        "r1": 4.611624983327085,
        "x1": 0.14502614141807368,
        "c1": 4.6562265437810535e-07,
        "tan1": 0.0,
        "r0": 0.3,
        "x0": 0.3,
        "c0": 1e-09,
        "tan0": 0.0,
        "i_n": 943.9231498283306
      },
      {
        "id": 13,
        "from_node": 1,
        "to_node": 2,
        "from_status": 1,
        "to_status": 1,
        "r1": 3.244872765684621,
        "x1": 4.504502458753113,
        "c1": 1.1320596465314436e-07,
        "tan1": 0.0,
        "r0": 0.3,
        "x0": 0.3,
        "c0": 1e-09,
        "tan0": 0.0,
        "i_n": 474.3783573043421
      },
      {
        "id": 14,
        "from_node": 2,
        "to_node": 3,
        "from_status": 1,
        "to_status": 1,
        "r1": 1.2328641630991517,
        "x1": 2.718804296179652,
        "c1": 5.739411879281007e-07,
        "tan1": 0.0,
        "r0": 0.3,
        "x0": 0.3,
        "c0": 1e-09,
        "tan0": 0.0,
        "i_n": 22.98304769301318
      },
      {
        "id": 15,
        "from_node": 3,
        "to_node": 4,
        "from_status": 1,
        "to_status": 1,
        "r1": 1.0836490023192407,
        "x1": 1.3974118300555516,
        "c1": 9.163453718085519e-07,
        "tan1": 0.0,
        "r0": 0.3,
        "x0": 0.3,
        "c0": 1e-09,
        "tan0": 0.0,
        "i_n": 768.0681971128503
      },
      {
        "id": 16,
        "from_node": 4,
        "to_node": 5,
        "from_status": 1,
        "to_status": 1,
        "r1": 0.7980210617901912,
        "x1": 3.9857349571560223,
        "c1": 1.3876741839890315e-07,
        "tan1": 0.0,
        "r0": 0.3,
        "x0": 0.3,
        "c0": 1e-09,
        "tan0": 0.0,
        "i_n": 621.2779952614554
      },
      {
        "id": 17,
        "from_node": 5,
        "to_node": 6,
        "from_status": 1,
        "to_status": 1,
        "r1": 0.6334961627513486,
        "x1": 0.00887431101267322,
        "c1": 8.714047447242821e-07,
        "tan1": 0.0,
        "r0": 0.3,
        "x0": 0.3,
        "c0": 1e-09,
        "tan0": 0.0,
        "i_n": 217.3618186701667
      },
      {
        "id": 18,
        "from_node": 6,
        "to_node": 7,
        "from_status": 1,
        "to_status": 1,
        "r1": 1.0774058461236613,
        "x1": 4.912105544129626,
        "c1": 8.724077654368019e-07,
        "tan1": 0.0,
        "r0": 0.3,
        "x0": 0.3,
        "c0": 1e-09,
        "tan0": 0.0,
        "i_n": 296.4121160694572
      },
      {
        "id": 19,
        "from_node": 7,
        "to_node": 8,
        "from_status": 1,
        "to_status": 1,
        "r1": 4.807389944750417,
        "x1": 2.696117344354053,
        "c1": 6.778304772505923e-07,
        "tan1": 0.0,
        "r0": 0.3,
        "x0": 0.3,
        "c0": 1e-09,
        "tan0": 0.0,
        "i_n": 212.7317193884549
      },
      {
        "id": 20,
        "from_node": 8,
        "to_node": 9,
        "from_status": 1,
        "to_status": 1,
        "r1": 4.704880005439995,
        "x1": 3.453209705534541,
        "c1": 9.665643123171953e-07,
        "tan1": 0.0,
        "r0": 0.3,
        "x0": 0.3,
        "c0": 1e-09,
        "tan0": 0.0,
        "i_n": 894.8042608007137
      },
      {
        "id": 21,
        "from_node": 9,
        "to_node": 10,
        "from_status": 1,
        "to_status": 1,
        "r1": 1.4939444892693388,
        "x1": 1.8059496736119207,
        "c1": 1.659560571297456e-07,
        "tan1": 0.0,
        "r0": 0.3,
        "x0": 0.3,
        "c0": 1e-09,
        "tan0": 0.0,
        "i_n": 154.2448904452757
      }
    ],
    "sym_load": [
      {
        "id": 22,
        "node": 1,
        "status": 1,
        "type": 1,
        "p_specified": 63480.06219135222,
        "q_specified": 1722.8251700674173
      },
      {
        "id": 23,
        "node": 2,
        "status": 1,
        "type": 2,
        "p_specified": -32420.62767442697,
        "q_specified": -3800.8413679374244
      },
      {
        "id": 24,
        "node": 4,
        "status": 1,
        "type": 1,
        "p_specified": -63045.351980301166,
        "q_specified": -549.2330037550437
      },
      {
        "id": 25,
        "node": 5,
        "status": 1,
        "type": 1,
        "p_specified": 95019.91262884706,
        "q_specified": -9542.688734945586
      },
      {
        "id": 26,
        "node": 8,
        "status": 1,
        "type": 1,
        "p_specified": -26763.10483162789,
        "q_specified": 1570.3765811374906
      },
      {
        "id": 27,
        "node": 9,
        "status": 1,
        "type": 0,
        "p_specified": 41551.65133017226,
        "q_specified": 2474.2606215447013
      }
    ],
    "shunt": [
      {
        "id": 28,
        "node": 0,
        "status": 1,
        "g1": 2.4608679063361374e-05,
        "b1": 6.389863333410596e-05,
        "g0": 0.0001,
        "b0": 0.0001
      }
    ]
  }
}